<?xml version="1.0" encoding="UTF-8"?>

<!-- generated on 2025-05-10 01:18:24 by Eclipse SUMO netedit Version 1.19.0
<configuration xmlns:xsi="http://www.w3.org/2001/XMLSchema-instance" xsi:noNamespaceSchemaLocation="http://sumo.dlr.de/xsd/neteditConfiguration.xsd">

    <input>
        <sumocfg-file value="C:\Users\Kartikeya A Yadav\Desktop\Traffic-RL-Project\environment\config.sumocfg"/>
        <additional-files value="C:\Users\Kartikeya A Yadav\Desktop\Traffic-RL-Project\environment\tls.add.xml"/>
        <route-files value="C:\Users\Kartikeya A Yadav\Desktop\Traffic-RL-Project\environment\traffic.rou.xml"/>
        <sumo-net-file value="C:\Users\Kartikeya A Yadav\Desktop\Traffic-RL-Project\environment\intersection.net.xml"/>
    </input>

    <output>
        <output-file value="C:\Users\Kartikeya A Yadav\Desktop\Traffic-RL-Project\environment\intersection.net.xml"/>
    </output>

    <processing>
        <geometry.min-radius.fix.railways value="false"/>
        <geometry.max-grade.fix value="false"/>
        <offset.disable-normalization value="true"/>
        <lefthand value="0"/>
    </processing>

    <junctions>
        <no-turnarounds value="true"/>
        <junctions.corner-detail value="5"/>
        <junctions.limit-turn-speed value="5.50"/>
        <rectangular-lane-cut value="0"/>
    </junctions>

    <pedestrian>
        <walkingareas value="0"/>
    </pedestrian>

    <netedit>
        <ignore.routeelements value="false"/>
    </netedit>

</configuration>
-->

<net version="1.16" junctionCornerDetail="5" limitTurnSpeed="5.50" xmlns:xsi="http://www.w3.org/2001/XMLSchema-instance" xsi:noNamespaceSchemaLocation="http://sumo.dlr.de/xsd/net_file.xsd">

    <location netOffset="-483157.41,-4423496.18" convBoundary="0.00,0.00,619.23,604.37" origBoundary="-75.197205,39.961451,-75.189957,39.966895" projParameter="+proj=utm +zone=18 +ellps=WGS84 +datum=WGS84 +units=m +no_defs"/>

    <type id="highway.footway" priority="1" numLanes="1" speed="2.78" allow="pedestrian" oneway="1" width="2.00"/>
    <type id="highway.primary" priority="12" numLanes="2" speed="27.78" disallow="tram rail_urban rail rail_electric rail_fast ship" oneway="0"/>

    <edge id=":110239609_0" function="internal">
        <lane id=":110239609_0_0" index="0" disallow="tram rail_urban rail rail_electric rail_fast ship" speed="5.88" length="7.18" shape="490.40,162.97 492.40,162.99 493.92,162.39 494.96,161.16 495.52,159.31"/>
    </edge>
    <edge id=":110239609_1" function="internal">
        <lane id=":110239609_1_0" index="0" disallow="tram rail_urban rail rail_electric rail_fast ship" speed="11.18" length="12.12" shape="490.40,162.97 502.40,164.67"/>
    </edge>
    <edge id=":110239609_2" function="internal">
        <lane id=":110239609_2_0" index="0" disallow="tram rail_urban rail rail_electric rail_fast ship" speed="11.18" length="9.70" shape="494.11,168.90 495.52,159.31"/>
        <lane id=":110239609_2_1" index="1" disallow="tram rail_urban rail rail_electric rail_fast ship" speed="11.18" length="9.70" shape="497.28,169.37 498.69,159.78"/>
    </edge>
    <edge id=":110239609_4" function="internal">
        <lane id=":110239609_4_0" index="0" disallow="tram rail_urban rail rail_electric rail_fast ship" speed="6.15" length="7.88" shape="497.28,169.37 497.89,167.09 498.95,165.55 500.45,164.74 502.40,164.67"/>
    </edge>
    <edge id=":4777696335_0" function="internal">
        <lane id=":4777696335_0_0" index="0" disallow="tram rail_urban rail rail_electric rail_fast ship" speed="11.18" length="0.30" shape="476.86,290.82 476.91,290.53"/>
        <lane id=":4777696335_0_1" index="1" disallow="tram rail_urban rail rail_electric rail_fast ship" speed="11.18" length="0.30" shape="480.03,291.27 480.08,290.97"/>
    </edge>
    <edge id=":4777696338_0" function="internal">
        <lane id=":4777696338_0_0" index="0" disallow="tram rail_urban rail rail_electric rail_fast ship" speed="11.18" length="0.30" shape="475.96,297.15 476.01,296.85"/>
        <lane id=":4777696338_0_1" index="1" disallow="tram rail_urban rail rail_electric rail_fast ship" speed="11.18" length="0.30" shape="479.13,297.59 479.18,297.30"/>
    </edge>
    <edge id=":4777696339_0" function="internal">
        <lane id=":4777696339_0_0" index="0" disallow="tram rail_urban rail rail_electric rail_fast ship" speed="11.18" length="0.30" shape="477.95,282.93 478.00,282.63"/>
        <lane id=":4777696339_0_1" index="1" disallow="tram rail_urban rail rail_electric rail_fast ship" speed="11.18" length="0.30" shape="481.12,283.37 481.17,283.07"/>
    </edge>
    <edge id=":4777696354_0" function="internal">
        <lane id=":4777696354_0_0" index="0" disallow="tram rail_urban rail rail_electric rail_fast ship" speed="11.18" length="4.05" shape="502.59,164.70 506.61,165.27"/>
    </edge>
    <edge id=":4777696355_0" function="internal">
        <lane id=":4777696355_0_0" index="0" disallow="tram rail_urban rail rail_electric rail_fast ship" speed="11.18" length="4.99" shape="493.35,174.11 494.07,169.17"/>
        <lane id=":4777696355_0_1" index="1" disallow="tram rail_urban rail rail_electric rail_fast ship" speed="11.18" length="4.99" shape="496.51,174.57 497.24,169.63"/>
    </edge>
    <edge id=":4777696356_0" function="internal">
        <lane id=":4777696356_0_0" index="0" disallow="tram rail_urban rail rail_electric rail_fast ship" speed="11.18" length="4.04" shape="486.20,162.38 490.20,162.94"/>
    </edge>
    <edge id=":4777696357_0" function="internal">
        <lane id=":4777696357_0_0" index="0" disallow="tram rail_urban rail rail_electric rail_fast ship" speed="11.18" length="3.80" shape="495.55,159.11 496.09,155.36"/>
        <lane id=":4777696357_0_1" index="1" disallow="tram rail_urban rail rail_electric rail_fast ship" speed="11.18" length="3.80" shape="498.72,159.58 499.26,155.81"/>
    </edge>

    <edge id="12185366#0" from="4777695890" to="4777696338" priority="12" type="highway.primary" spreadType="center" shape="433.31,604.37 434.92,595.13 442.79,543.85 451.53,482.17 459.59,425.20 460.31,420.08 461.23,413.18 469.27,356.81 477.57,297.22">
        <lane id="12185366#0_0" index="0" disallow="tram rail_urban rail rail_electric rail_fast ship" speed="11.18" length="310.18" shape="431.73,604.10 433.34,594.87 441.21,543.62 449.95,481.95 458.01,424.98 458.72,419.86 459.64,412.96 467.69,356.59 475.96,297.15"/>
        <lane id="12185366#0_1" index="1" disallow="tram rail_urban rail rail_electric rail_fast ship" speed="11.18" length="310.18" shape="434.89,604.64 436.50,595.39 444.37,544.08 453.11,482.39 461.17,425.42 461.90,420.30 462.82,413.40 470.85,357.03 479.13,297.59"/>
        <param key="ref" value="US 13"/>
    </edge>
    <edge id="12185366#1" from="4777696338" to="4777696335" priority="12" type="highway.primary" spreadType="center" shape="477.57,297.22 477.72,296.17 478.47,290.90">
        <lane id="12185366#1_0" index="0" disallow="tram rail_urban rail rail_electric rail_fast ship" speed="11.18" length="6.08" shape="476.01,296.85 476.14,295.94 476.86,290.82"/>
        <lane id="12185366#1_1" index="1" disallow="tram rail_urban rail rail_electric rail_fast ship" speed="11.18" length="6.08" shape="479.18,297.30 479.30,296.40 480.03,291.27"/>
        <param key="ref" value="US 13"/>
    </edge>
    <edge id="12185366#2" from="4777696335" to="4777696339" priority="12" type="highway.primary" spreadType="center">
        <lane id="12185366#2_0" index="0" disallow="tram rail_urban rail rail_electric rail_fast ship" speed="11.18" length="7.68" shape="476.91,290.53 477.95,282.93"/>
        <lane id="12185366#2_1" index="1" disallow="tram rail_urban rail rail_electric rail_fast ship" speed="11.18" length="7.68" shape="480.08,290.97 481.12,283.37"/>
        <param key="ref" value="US 13"/>
    </edge>
    <edge id="12185366#3" from="4777696339" to="4777696355" priority="12" type="highway.primary" spreadType="center" shape="479.56,283.00 479.69,282.05 487.10,228.41 495.25,172.14">
        <lane id="12185366#3_0" index="0" disallow="tram rail_urban rail rail_electric rail_fast ship" speed="11.18" length="109.59" shape="478.00,282.63 478.11,281.83 485.52,228.19 493.35,174.11"/>
        <lane id="12185366#3_1" index="1" disallow="tram rail_urban rail rail_electric rail_fast ship" speed="11.18" length="109.59" shape="481.17,283.07 481.27,282.27 488.68,228.63 496.51,174.57"/>
        <param key="ref" value="US 13"/>
    </edge>
    <edge id="12185366#4" from="4777696355" to="110239609" priority="12" type="highway.primary" spreadType="center">
        <lane id="12185366#4_0" index="0" disallow="tram rail_urban rail rail_electric rail_fast ship" speed="11.18" length="0.26" shape="494.07,169.17 494.11,168.90"/>
        <lane id="12185366#4_1" index="1" disallow="tram rail_urban rail rail_electric rail_fast ship" speed="11.18" length="0.26" shape="497.24,169.63 497.28,169.37"/>
        <param key="ref" value="US 13"/>
    </edge>
    <edge id="1287003600#0" from="11936602324" to="11936602328" priority="1" type="highway.footway" spreadType="center" shape="478.96,222.60 369.61,207.23 376.92,153.72 487.52,169.68">
        <lane id="1287003600#0_0" index="0" allow="pedestrian" speed="2.78" length="272.68" width="2.00" shape="477.99,222.46 369.61,207.23 376.92,153.72 485.03,169.32"/>
    </edge>
    <edge id="1287003600#1" from="11936602328" to="11936602324" priority="1" type="highway.footway" spreadType="center">
        <lane id="1287003600#1_0" index="0" allow="pedestrian" speed="2.78" length="49.97" width="2.00" shape="487.10,172.31 479.12,221.63"/>
    </edge>
    <edge id="1287003602#0" from="11936602329" to="11936602331" priority="1" type="highway.footway" spreadType="center">
        <lane id="1287003602#0_0" index="0" allow="pedestrian" speed="2.78" length="108.99" width="2.00" shape="379.31,141.31 487.22,156.58"/>
    </edge>
    <edge id="1287003602#1" from="11936602331" to="11936602329" priority="1" type="highway.footway" spreadType="center" shape="489.73,156.93 498.56,85.09 387.28,70.72 378.33,141.17">
        <lane id="1287003602#1_0" index="0" allow="pedestrian" speed="2.78" length="252.10" width="2.00" shape="490.04,154.43 498.56,85.09 387.28,70.72 378.45,140.19"/>
    </edge>
    <edge id="1287004541#0" from="11936602340" to="11936583441" priority="1" type="highway.footway" spreadType="center">
        <lane id="1287004541#0_0" index="0" allow="pedestrian" speed="2.78" length="69.04" width="2.00" shape="515.78,88.56 505.50,156.83"/>
    </edge>
    <edge id="1287004541#1" from="11936583441" to="11935577959" priority="1" type="highway.footway" spreadType="center" shape="505.13,159.31 555.75,166.86 567.44,168.60 613.87,174.49">
        <lane id="1287004541#1_0" index="0" allow="pedestrian" speed="2.78" length="107.30" width="2.00" shape="507.60,159.68 555.75,166.86 567.44,168.60 613.87,174.49"/>
    </edge>
    <edge id="1287004543#0" from="11936583441" to="4777696357" priority="1" type="highway.footway" spreadType="center">
        <lane id="1287004543#0_0" index="0" allow="pedestrian" speed="2.78" length="0.66" width="2.00" shape="502.62,158.92 501.97,158.82"/>
    </edge>
    <edge id="1287004543#1" from="4777696357" to="11936602331" priority="1" type="highway.footway" spreadType="center">
        <lane id="1287004543#1_0" index="0" allow="pedestrian" speed="2.78" length="0.49" width="2.00" shape="492.66,157.38 492.18,157.31"/>
    </edge>
    <edge id="1287004543#2" from="11936602331" to="4777696356" priority="1" type="highway.footway" spreadType="center">
        <lane id="1287004543#2_0" index="0" allow="pedestrian" speed="2.78" length="0.23" width="2.00" shape="489.30,159.42 489.26,159.65"/>
    </edge>
    <edge id="1287004543#3" from="4777696356" to="11936602328" priority="1" type="highway.footway" spreadType="center">
        <lane id="1287004543#3_0" index="0" allow="pedestrian" speed="2.78" length="1.45" width="2.00" shape="488.19,165.82 487.94,167.25"/>
    </edge>
    <edge id="1287004543#4" from="11936602328" to="4777696355" priority="1" type="highway.footway" spreadType="center">
        <lane id="1287004543#4_0" index="0" allow="pedestrian" speed="2.78" length="0.55" width="2.00" shape="490.05,170.49 490.58,170.65"/>
    </edge>
    <edge id="1287004543#5" from="4777696355" to="11936583444" priority="1" type="highway.footway" spreadType="center">
        <lane id="1287004543#5_0" index="0" allow="pedestrian" speed="2.78" length="0.20" width="2.00" shape="499.64,172.39 499.84,172.40"/>
    </edge>
    <edge id="1287004543#6" from="11936583444" to="4777696354" priority="1" type="highway.footway" spreadType="center">
        <lane id="1287004543#6_0" index="0" allow="pedestrian" speed="2.78" length="2.04" width="2.00" shape="502.70,170.00 503.23,168.03"/>
    </edge>
    <edge id="1287004543#7" from="4777696354" to="11936583441" priority="1" type="highway.footway" spreadType="center">
        <lane id="1287004543#7_0" index="0" allow="pedestrian" speed="2.78" length="0.10" width="2.00" shape="504.65,161.81 504.67,161.71"/>
    </edge>
    <edge id="1287004544" from="11936583444" to="11935577957" priority="1" type="highway.footway" spreadType="center" shape="502.03,172.52 494.42,225.54 605.62,240.96">
        <lane id="1287004544_0" index="0" allow="pedestrian" speed="2.78" length="163.24" width="2.00" shape="501.66,175.08 494.42,225.54 605.62,240.96"/>
    </edge>
    <edge id="1287004545" from="11936583444" to="11935577960" priority="1" type="highway.footway" spreadType="center">
        <lane id="1287004545_0" index="0" allow="pedestrian" speed="2.78" length="109.12" width="2.00" shape="504.61,172.92 612.44,189.66"/>
    </edge>
    <edge id="194358838#0" from="110239678" to="4777696356" priority="12" type="highway.primary" spreadType="center" shape="0.00,94.82 6.95,95.74 117.45,110.02 124.70,111.31 131.46,112.28 241.47,127.88 248.10,128.82 255.28,129.85 366.99,145.77 372.19,146.50 377.64,147.28 488.73,162.73">
        <lane id="194358838#0_0" index="0" disallow="tram rail_urban rail rail_electric rail_fast ship" speed="11.18" length="490.88" shape="0.00,94.82 6.95,95.74 117.45,110.02 124.70,111.31 131.46,112.28 241.47,127.88 248.10,128.82 255.28,129.85 366.99,145.77 372.19,146.50 377.64,147.28 486.20,162.38"/>
    </edge>
    <edge id="194358838#1" from="4777696356" to="110239609" priority="12" type="highway.primary" spreadType="center">
        <lane id="194358838#1_0" index="0" disallow="tram rail_urban rail rail_electric rail_fast ship" speed="11.18" length="0.20" shape="490.20,162.94 490.40,162.97"/>
    </edge>
    <edge id="387422143#0" from="110239609" to="4777696354" priority="12" type="highway.primary" spreadType="center">
        <lane id="387422143#0_0" index="0" disallow="tram rail_urban rail rail_electric rail_fast ship" speed="11.18" length="0.20" shape="502.40,164.67 502.59,164.70"/>
    </edge>
    <edge id="387422143#1" from="4777696354" to="110031249" priority="12" type="highway.primary" spreadType="center" shape="504.06,164.90 554.77,172.28 566.67,173.93 613.17,180.97 619.23,182.09">
        <lane id="387422143#1_0" index="0" disallow="tram rail_urban rail rail_electric rail_fast ship" speed="11.18" length="113.88" shape="506.61,165.27 554.77,172.28 566.67,173.93 613.17,180.97 619.23,182.09"/>
    </edge>
    <edge id="387422145#0" from="110239609" to="4777696357" priority="12" type="highway.primary" spreadType="center">
        <lane id="387422145#0_0" index="0" disallow="tram rail_urban rail rail_electric rail_fast ship" speed="11.18" length="0.20" shape="495.52,159.31 495.55,159.11"/>
        <lane id="387422145#0_1" index="1" disallow="tram rail_urban rail rail_electric rail_fast ship" speed="11.18" length="0.20" shape="498.69,159.78 498.72,159.58"/>
        <param key="ref" value="US 13"/>
    </edge>
    <edge id="387422145#1" from="4777696357" to="4777696369" priority="12" type="highway.primary" spreadType="center">
        <lane id="387422145#1_0" index="0" disallow="tram rail_urban rail rail_electric rail_fast ship" speed="11.18" length="68.38" shape="496.09,155.36 505.74,87.66"/>
        <lane id="387422145#1_1" index="1" disallow="tram rail_urban rail rail_electric rail_fast ship" speed="11.18" length="68.38" shape="499.26,155.81 508.90,88.12"/>
        <param key="ref" value="US 13"/>
    </edge>

    <tlLogic id="110239609" type="static" programID="0" offset="0">
        <phase duration="42" state="Gr"/>
        <phase duration="3"  state="yr"/>
        <phase duration="42" state="rG"/>
        <phase duration="3"  state="ry"/>
    </tlLogic>
    <tlLogic id="4777696335" type="static" programID="0" offset="0">
        <phase duration="82" state="GG"/>
        <phase duration="3"  state="yy"/>
        <phase duration="5"  state="rr"/>
    </tlLogic>
    <tlLogic id="4777696338" type="static" programID="0" offset="0">
        <phase duration="82" state="GG"/>
        <phase duration="3"  state="yy"/>
        <phase duration="5"  state="rr"/>
    </tlLogic>
    <tlLogic id="4777696339" type="static" programID="0" offset="0">
        <phase duration="82" state="GG"/>
        <phase duration="3"  state="yy"/>
        <phase duration="5"  state="rr"/>
    </tlLogic>
    <tlLogic id="4777696354" type="static" programID="0" offset="0">
        <phase duration="82" state="G"/>
        <phase duration="3"  state="y"/>
        <phase duration="5"  state="r"/>
    </tlLogic>
    <tlLogic id="4777696357" type="static" programID="0" offset="0">
        <phase duration="82" state="GG"/>
        <phase duration="3"  state="yy"/>
        <phase duration="5"  state="rr"/>
    </tlLogic>

    <junction id="110031249" type="dead_end" x="619.23" y="182.09" incLanes="387422143#1_0" intLanes="" shape="619.52,180.52 618.94,183.66"/>
    <junction id="110239609" type="traffic_light" x="496.47" y="163.86" incLanes="194358838#1_0 12185366#4_0 12185366#4_1" intLanes=":110239609_0_0 :110239609_1_0 :110239609_2_0 :110239609_2_1 :110239609_4_0" shape="503.40,166.42 503.83,163.25 501.70,162.51 501.01,161.86 500.57,161.02 500.39,159.98 500.46,158.76 494.13,157.83 493.36,159.98 492.70,160.67 491.84,161.11 490.81,161.30 489.58,161.24 489.12,164.40 491.25,165.16 491.94,165.82 492.37,166.67 492.56,167.71 492.49,168.93 498.82,169.86 499.59,167.71 500.26,167.01 501.12,166.56 502.16,166.37">
        <request index="0" response="01100" foes="01100" cont="0"/>
        <request index="1" response="11100" foes="11100" cont="0"/>
        <request index="2" response="00000" foes="00011" cont="0"/>
        <request index="3" response="00000" foes="00011" cont="0"/>
        <request index="4" response="00000" foes="00010" cont="0"/>
    </junction>
    <junction id="110239678" type="dead_end" x="0.00" y="94.82" incLanes="" intLanes="" shape="-0.21,96.41 0.21,93.23"/>
    <junction id="110432722" type="dead_end" x="519.77" y="0.00" incLanes="" intLanes="" shape="519.77,0.00"/>
    <junction id="11935577957" type="dead_end" x="605.62" y="240.96" incLanes="1287004544_0" intLanes="" shape="605.76,239.97 605.48,241.95"/>
    <junction id="11935577959" type="dead_end" x="613.87" y="174.49" incLanes="1287004541#1_0" intLanes="" shape="614.00,173.50 613.74,175.48"/>
    <junction id="11935577960" type="dead_end" x="612.44" y="189.66" incLanes="1287004545_0" intLanes="" shape="612.59,188.67 612.29,190.65"/>
    <junction id="11936583441" type="dead_end" x="505.13" y="159.31" incLanes="1287004541#0_0 1287004543#7_0" intLanes="" shape="507.46,160.67 507.75,158.69 506.95,158.40 506.69,158.15 506.53,157.83 506.46,157.44 506.49,156.98 504.51,156.68 504.22,157.48 503.97,157.74 503.64,157.90 503.25,157.96 502.78,157.93 502.47,159.91 503.26,160.20 503.51,160.45 503.66,160.77 503.72,161.16 503.67,161.61 505.64,161.99 505.97,161.15 506.24,160.88 506.58,160.71 506.98,160.64"/>
    <junction id="11936583444" type="dead_end" x="502.03" y="172.52" incLanes="1287004543#5_0" intLanes="" shape="504.46,173.91 504.76,171.93 503.98,171.64 503.75,171.40 503.62,171.08 503.59,170.70 503.67,170.25 501.74,169.74 501.28,170.69 500.95,171.02 500.54,171.24 500.05,171.36 499.50,171.38 499.39,173.37 500.20,173.59 500.46,173.81 500.62,174.11 500.70,174.49 500.67,174.94 502.65,175.23 502.95,174.39 503.22,174.12 503.55,173.95 503.97,173.88"/>
    <junction id="11936602324" type="dead_end" x="478.96" y="222.60" incLanes="1287003600#1_0" intLanes="" shape="480.10,221.79 478.13,221.47 477.85,223.45 478.96,223.39 479.38,223.17 479.71,222.84 479.95,222.38"/>
    <junction id="11936602328" type="dead_end" x="487.52" y="169.68" incLanes="1287004543#3_0 1287003600#0_0" intLanes="" shape="489.75,171.44 490.36,169.53 489.44,169.06 489.15,168.73 488.97,168.35 488.89,167.91 488.93,167.42 486.96,167.07 486.65,167.87 486.38,168.13 486.05,168.29 485.65,168.36 485.17,168.33 484.89,170.31 485.68,170.61 485.93,170.88 486.09,171.22 486.15,171.64 486.11,172.15 488.08,172.47 488.37,171.69 488.62,171.47 488.93,171.35 489.31,171.34"/>
    <junction id="11936602329" type="dead_end" x="378.33" y="141.17" incLanes="1287003602#1_0" intLanes="" shape="379.17,142.30 379.45,140.32 377.46,140.07 377.54,141.18 377.76,141.60 378.11,141.93 378.58,142.16"/>
    <junction id="11936602331" type="dead_end" x="489.73" y="156.93" incLanes="1287004543#1_0 1287003602#0_0" intLanes="" shape="492.03,158.30 492.34,156.32 491.53,156.02 491.26,155.76 491.09,155.43 491.01,155.03 491.03,154.55 489.04,154.31 488.78,155.11 488.53,155.37 488.22,155.54 487.83,155.61 487.36,155.59 487.08,157.57 487.88,157.85 488.13,158.09 488.29,158.41 488.35,158.80 488.31,159.25 490.29,159.59 490.60,158.77 490.85,158.51 491.18,158.34 491.57,158.27"/>
    <junction id="11936602340" type="dead_end" x="515.78" y="88.56" incLanes="" intLanes="" shape="514.79,88.41 516.77,88.71"/>
    <junction id="4777695890" type="dead_end" x="433.31" y="604.37" incLanes="" intLanes="" shape="436.46,604.92 430.16,603.82"/>
    <junction id="4777696335" type="traffic_light" x="478.47" y="290.90" incLanes="12185366#1_0 12185366#1_1" intLanes=":4777696335_0_0 :4777696335_0_1" shape="481.66,291.19 475.32,290.31 475.28,290.60 481.62,291.50">
        <request index="0" response="00" foes="00" cont="0"/>
        <request index="1" response="00" foes="00" cont="0"/>
    </junction>
    <junction id="4777696338" type="traffic_light" x="477.57" y="297.22" incLanes="12185366#0_0 12185366#0_1" intLanes=":4777696338_0_0 :4777696338_0_1" shape="480.76,297.52 474.42,296.62 474.38,296.93 480.72,297.81">
        <request index="0" response="00" foes="00" cont="0"/>
        <request index="1" response="00" foes="00" cont="0"/>
    </junction>
    <junction id="4777696339" type="traffic_light" x="479.56" y="283.00" incLanes="12185366#2_0 12185366#2_1" intLanes=":4777696339_0_0 :4777696339_0_1" shape="482.75,283.29 476.41,282.42 476.37,282.71 482.71,283.59">
        <request index="0" response="00" foes="00" cont="0"/>
        <request index="1" response="00" foes="00" cont="0"/>
    </junction>
    <junction id="4777696354" type="traffic_light" x="504.06" y="164.90" incLanes="387422143#0_0 1287004543#6_0" intLanes=":4777696354_0_0" shape="506.38,166.85 506.84,163.69 506.04,163.40 505.79,163.16 505.64,162.84 505.59,162.45 505.63,162.00 503.67,161.62 503.31,162.47 503.00,162.74 502.61,162.91 502.15,162.98 501.59,162.95 501.16,166.12 501.94,166.39 502.18,166.63 502.31,166.94 502.34,167.32 502.26,167.77 504.19,168.29 504.63,167.38 504.96,167.09 505.36,166.90 505.83,166.82">
        <request index="0" response="0" foes="0" cont="0"/>
    </junction>
    <junction id="4777696355" type="priority" x="495.25" y="172.14" incLanes="1287004543#4_0 12185366#3_0 12185366#3_1" intLanes=":4777696355_0_0 :4777696355_0_1" shape="499.99,173.41 500.10,171.41 499.30,171.17 499.04,170.92 498.88,170.57 498.82,170.13 498.86,169.60 492.53,168.67 492.25,169.44 492.01,169.67 491.70,169.79 491.32,169.80 490.88,169.70 490.27,171.61 491.21,172.10 491.52,172.45 491.71,172.86 491.79,173.34 491.76,173.88 498.10,174.80 498.40,173.98 498.68,173.71 499.03,173.52 499.47,173.42">
        <request index="0" response="00" foes="00" cont="0"/>
        <request index="1" response="00" foes="00" cont="0"/>
    </junction>
    <junction id="4777696356" type="priority" x="488.73" y="162.73" incLanes="1287004543#2_0 194358838#0_0" intLanes=":4777696356_0_0" shape="491.01,164.68 491.48,161.51 490.68,161.23 490.43,160.98 490.27,160.66 490.21,160.28 490.25,159.82 488.28,159.48 487.95,160.31 487.68,160.58 487.33,160.75 486.91,160.82 486.42,160.79 485.98,163.96 486.78,164.24 487.03,164.49 487.18,164.80 487.24,165.19 487.21,165.65 489.18,165.99 489.50,165.16 489.77,164.89 490.11,164.72 490.53,164.65">
        <request index="0" response="0" foes="0" cont="0"/>
    </junction>
    <junction id="4777696357" type="traffic_light" x="497.32" y="158.10" incLanes="1287004543#0_0 387422145#0_0 387422145#0_1" intLanes=":4777696357_0_0 :4777696357_0_1" shape="501.82,159.81 502.12,157.83 501.32,157.53 501.05,157.27 500.89,156.93 500.82,156.52 500.85,156.04 494.51,155.14 494.23,155.94 493.98,156.19 493.66,156.36 493.27,156.42 492.82,156.39 492.51,158.37 493.32,158.67 493.58,158.93 493.74,159.25 493.81,159.66 493.79,160.13 500.12,161.06 500.40,160.26 500.65,160.01 500.97,159.85 501.36,159.78">
        <request index="0" response="00" foes="00" cont="0"/>
        <request index="1" response="00" foes="00" cont="0"/>
    </junction>
    <junction id="4777696369" type="dead_end" x="507.32" y="87.89" incLanes="387422145#1_0 387422145#1_1" intLanes="" shape="504.15,87.44 510.49,88.34"/>

    <connection from="12185366#0" to="12185366#1" fromLane="0" toLane="0" via=":4777696338_0_0" tl="4777696338" linkIndex="0" dir="s" state="O"/>
    <connection from="12185366#0" to="12185366#1" fromLane="1" toLane="1" via=":4777696338_0_1" tl="4777696338" linkIndex="1" dir="s" state="O"/>
    <connection from="12185366#1" to="12185366#2" fromLane="0" toLane="0" via=":4777696335_0_0" tl="4777696335" linkIndex="0" dir="s" state="O"/>
    <connection from="12185366#1" to="12185366#2" fromLane="1" toLane="1" via=":4777696335_0_1" tl="4777696335" linkIndex="1" dir="s" state="O"/>
    <connection from="12185366#2" to="12185366#3" fromLane="0" toLane="0" via=":4777696339_0_0" tl="4777696339" linkIndex="0" dir="s" state="O"/>
    <connection from="12185366#2" to="12185366#3" fromLane="1" toLane="1" via=":4777696339_0_1" tl="4777696339" linkIndex="1" dir="s" state="O"/>
    <connection from="12185366#3" to="12185366#4" fromLane="0" toLane="0" via=":4777696355_0_0" dir="s" state="M"/>
    <connection from="12185366#3" to="12185366#4" fromLane="1" toLane="1" via=":4777696355_0_1" dir="s" state="M"/>
    <connection from="12185366#4" to="387422145#0" fromLane="0" toLane="0" via=":110239609_2_0" tl="110239609" linkIndex="1" dir="s" state="O"/>
    <connection from="12185366#4" to="387422145#0" fromLane="1" toLane="1" via=":110239609_2_1" tl="110239609" linkIndex="1" dir="s" state="O"/>
    <connection from="12185366#4" to="387422143#0" fromLane="1" toLane="0" via=":110239609_4_0" tl="110239609" linkIndex="1" dir="l" state="O"/>
    <connection from="194358838#0" to="194358838#1" fromLane="0" toLane="0" via=":4777696356_0_0" dir="s" state="M"/>
    <connection from="194358838#1" to="387422145#0" fromLane="0" toLane="0" via=":110239609_0_0" tl="110239609" linkIndex="0" dir="r" state="o"/>
    <connection from="194358838#1" to="387422143#0" fromLane="0" toLane="0" via=":110239609_1_0" tl="110239609" linkIndex="0" dir="s" state="o"/>
    <connection from="387422143#0" to="387422143#1" fromLane="0" toLane="0" via=":4777696354_0_0" tl="4777696354" linkIndex="0" dir="s" state="O"/>
    <connection from="387422145#0" to="387422145#1" fromLane="0" toLane="0" via=":4777696357_0_0" tl="4777696357" linkIndex="0" dir="s" state="O"/>
    <connection from="387422145#0" to="387422145#1" fromLane="1" toLane="1" via=":4777696357_0_1" tl="4777696357" linkIndex="1" dir="s" state="O"/>

    <connection from=":110239609_0" to="387422145#0" fromLane="0" toLane="0" dir="r" state="M"/>
    <connection from=":110239609_1" to="387422143#0" fromLane="0" toLane="0" dir="s" state="M"/>
    <connection from=":110239609_2" to="387422145#0" fromLane="0" toLane="0" dir="s" state="M"/>
    <connection from=":110239609_2" to="387422145#0" fromLane="1" toLane="1" dir="s" state="M"/>
    <connection from=":110239609_4" to="387422143#0" fromLane="0" toLane="0" dir="l" state="M"/>
    <connection from=":4777696335_0" to="12185366#2" fromLane="0" toLane="0" dir="s" state="M"/>
    <connection from=":4777696335_0" to="12185366#2" fromLane="1" toLane="1" dir="s" state="M"/>
    <connection from=":4777696338_0" to="12185366#1" fromLane="0" toLane="0" dir="s" state="M"/>
    <connection from=":4777696338_0" to="12185366#1" fromLane="1" toLane="1" dir="s" state="M"/>
    <connection from=":4777696339_0" to="12185366#3" fromLane="0" toLane="0" dir="s" state="M"/>
    <connection from=":4777696339_0" to="12185366#3" fromLane="1" toLane="1" dir="s" state="M"/>
    <connection from=":4777696354_0" to="387422143#1" fromLane="0" toLane="0" dir="s" state="M"/>
    <connection from=":4777696355_0" to="12185366#4" fromLane="0" toLane="0" dir="s" state="M"/>
    <connection from=":4777696355_0" to="12185366#4" fromLane="1" toLane="1" dir="s" state="M"/>
    <connection from=":4777696356_0" to="194358838#1" fromLane="0" toLane="0" dir="s" state="M"/>
    <connection from=":4777696357_0" to="387422145#1" fromLane="0" toLane="0" dir="s" state="M"/>
    <connection from=":4777696357_0" to="387422145#1" fromLane="1" toLane="1" dir="s" state="M"/>

</net>
